models/240bus_psse/WECC240_v04_DPV_RE20_v33_6302_xfmr_DPbuscode.raw
0,   100.00, 33, 0, 1, 60.00     / PSS(R)E-33.11   FRI, NOV 12 2021  10:45
SIMPLIFIED WECC240 MODEL: PRELIMINARY DRAFT, RESEARCH ONLY
FOR PSERC PROJECT M21 - SEE PROJECT DOCUMENTS FOR DETAILS
  1001,'FOURCORN    ', 500.0000,1,   1,   3,   1,1.02615,  40.3453,1.10000,0.90000,1.10000,0.90000
  1002,'FOURCORN    ', 345.0000,1,   1,   3,   1,1.01400,  44.8942,1.10000,0.90000,1.10000,0.90000
  1003,'FOURCORN    ', 230.0000,2,   1,  10,   1,0.97343,  36.3132,1.10000,0.90000,1.10000,0.90000
  1004,'SAN JUAN    ', 345.0000,2,   1,  10,   1,1.03877,  57.9453,1.10000,0.90000,1.10000,0.90000
  1032,'FCNGN4CC    ',  20.0000,2,   1,  10,   1,1.01673,  45.4745,1.10000,0.90000,1.10000,0.90000
  1034,'SJUAN G4    ',  20.0000,2,   1,  10,   1,1.04109,  59.5354,1.10000,0.90000,1.10000,0.90000
  1101,'CORONADO    ', 500.0000,2,   1,   3,   1,1.01000,  17.0766,1.10000,0.90000,1.10000,0.90000
  1102,'CHOLLA      ', 345.0000,1,   1,   3,   1,0.98143,  28.3214,1.10000,0.90000,1.10000,0.90000
  1131,'CORONADO    ',  20.0000,2,   1,   3,   1,1.01061,  17.8047,1.10000,0.90000,1.10000,0.90000
  1201,'MOENKOPI    ', 500.0000,1,   1,   3,   1,1.08363,  20.6704,1.10000,0.90000,1.10000,0.90000
  1202,'NAVAJO      ', 500.0000,1,   1,   3,   1,1.08000,  23.8133,1.10000,0.90000,1.10000,0.90000
  1232,'NAVAJO 2    ',  20.0000,2,   1,   3,   1,1.08077,  24.6441,1.10000,0.90000,1.10000,0.90000
  1301,'MEAD        ', 500.0000,2,   1,   3,   1,1.04500,  15.8704,1.10000,0.90000,1.10000,0.90000
  1302,'H ALLEN     ', 500.0000,1,   1,   9,   1,1.02717,  16.7170,1.10000,0.90000,1.10000,0.90000
  1303,'H ALLEN     ', 345.0000,2,   1,   9,   1,1.00500,  14.3731,1.10000,0.90000,1.10000,0.90000
  1331,'HOOVER      ',  20.0000,2,   1,   3,   1,1.04514,  16.9508,1.10000,0.90000,1.10000,0.90000
  1333,'H ALLEN     ',  20.0000,2,   1,   9,   1,1.00845,  15.8278,1.10000,0.90000,1.10000,0.90000
  1401,'PALOVRDE    ', 500.0000,2,   1,   3,   1,1.03500,  12.3620,1.10000,0.90000,1.10000,0.90000
  1402,'WESTWING    ', 500.0000,2,   1,   3,   1,1.05870,   6.7006,1.10000,0.90000,1.10000,0.90000
  1403,'PARKER      ', 230.0000,1,   1,   3,   1,1.03634,  12.0506,1.10000,0.90000,1.10000,0.90000
  1431,'PALOVRD2    ',  20.0000,2,   1,   3,   1,1.04069,  14.7130,1.10000,0.90000,1.10000,0.90000
  2000,'MEXICO      ', 230.0000,1,   2,   7,   1,1.00000,   4.7124,1.10000,0.90000,1.10000,0.90000
  2030,'MEXICO      ',  20.0000,2,   2,   7,   1,1.00147,   5.4155,1.10000,0.90000,1.10000,0.90000
  2100,'IMPERIAL    ', 230.0000,1,   2,   2,   1,1.03500,  10.4609,1.10000,0.90000,1.10000,0.90000
  2130,'IMPERIAL    ',  20.0000,2,   2,   2,   1,1.03588,  10.8160,1.10000,0.90000,1.10000,0.90000
  2201,'MIGUEL      ', 500.0000,1,   2,   2,   1,0.98681,  -6.4006,1.10000,0.90000,1.10000,0.90000
  2202,'MIGUEL      ', 230.0000,2,   2,   2,   1,0.98492,  -7.8902,1.10000,0.90000,1.10000,0.90000
  2203,'MISSION     ', 230.0000,2,   2,   2,   1,1.00500,  -9.0387,1.10000,0.90000,1.10000,0.90000
  2233,'MISSION     ',  20.0000,2,   2,   2,   1,1.00726,  -8.7576,1.10000,0.90000,1.10000,0.90000
  2301,'IMPRLVLY    ', 500.0000,1,   2,   2,   1,1.03371,   8.0989,1.10000,0.90000,1.10000,0.90000
  2302,'IMPRLVLY    ', 230.0000,1,   2,   2,   1,1.03500,   9.1216,1.10000,0.90000,1.10000,0.90000
  2332,'IMPRLVLY    ',  20.0000,2,   2,   2,   1,1.03557,   9.3563,1.10000,0.90000,1.10000,0.90000
  2400,'DEVERS      ', 500.0000,2,   2,   2,   1,1.02319,   2.5834,1.10000,0.90000,1.10000,0.90000
  2401,'LUGO        ', 500.0000,2,   2,   2,   1,1.04980,   6.2357,1.10000,0.90000,1.10000,0.90000
  2402,'MIRALOMA    ', 500.0000,2,   2,   2,   1,1.03072,   1.4911,1.10000,0.90000,1.10000,0.90000
  2403,'VALLEY      ', 500.0000,2,   2,   2,   1,1.02233,  -1.5938,1.10000,0.90000,1.10000,0.90000
  2404,'VINCENT     ', 500.0000,1,   2,   2,   1,1.03896,   8.6537,1.10000,0.90000,1.10000,0.90000
  2405,'SYLMAR S    ', 230.0000,2,   2,   2,   1,1.01239,   7.5308,1.10000,0.90000,1.10000,0.90000
  2406,'EAGLROCK    ', 230.0000,2,   2,   2,   1,1.00802,   2.9650,1.10000,0.90000,1.10000,0.90000
  2407,'LITEHIPE    ', 230.0000,2,   2,   2,   1,0.97137,  -3.8482,1.10000,0.90000,1.10000,0.90000
  2408,'MESA CAL    ', 230.0000,2,   2,   2,   1,1.00900,   8.6350,1.10000,0.90000,1.10000,0.90000
  2409,'MIRALOMA    ', 230.0000,2,   2,   2,   1,1.02000,   0.2510,1.10000,0.90000,1.10000,0.90000
  2410,'PARDEE      ', 230.0000,2,   2,   2,   1,1.00706,   3.5786,1.10000,0.90000,1.10000,0.90000
  2411,'VINCENT     ', 230.0000,2,   2,   2,   1,1.02032,   6.9577,1.10000,0.90000,1.10000,0.90000
  2431,'LUGO        ',  20.0000,2,   2,   2,   1,1.05000,   6.2617,1.10000,0.90000,1.10000,0.90000
  2434,'VINCENT     ',  20.0000,2,   2,   2,   1,1.02000,   6.9852,1.10000,0.90000,1.10000,0.90000
  2438,'MESA CAL    ',  20.0000,2,   2,   2,   1,1.00988,  10.0589,1.10000,0.90000,1.10000,0.90000
  2439,'MIRALOMA    ',  20.0000,2,   2,   2,   1,1.01977,   0.3061,1.10000,0.90000,1.10000,0.90000
  2501,'SERRANO     ', 500.0000,1,   2,   2,   1,1.02564,  -0.7366,1.10000,0.90000,1.10000,0.90000
  2502,'SERRANO     ', 230.0000,2,   2,   2,   1,1.02261,  -2.3364,1.10000,0.90000,1.10000,0.90000
  2503,'S.ONOFRE    ', 230.0000,2,   2,   2,   1,1.00900,  -4.6880,1.10000,0.90000,1.10000,0.90000
  2533,'S.ONOFRE    ',  20.0000,2,   2,   2,   1,1.00986,  -4.1541,1.10000,0.90000,1.10000,0.90000
  2600,'ADELANTO    ', 500.0000,1,   2,   2,   1,1.05342,  11.3840,1.10000,0.90000,1.10000,0.90000
  2601,'RINALDI     ', 500.0000,1,   2,   2,   1,1.04663,  10.1188,1.10000,0.90000,1.10000,0.90000
  2602,'STA E       ', 500.0000,1,   2,   2,   1,1.02134,   9.9319,1.10000,0.90000,1.10000,0.90000
  2603,'VICTORVL    ', 500.0000,1,   2,   2,   1,1.05405,  10.7446,1.10000,0.90000,1.10000,0.90000
  2604,'INTERMT     ', 345.0000,1,   2,   2,   1,1.06000,  48.4355,1.10000,0.90000,1.10000,0.90000
  2605,'STA B1      ', 287.0000,1,   2,   2,   1,1.02038,  11.7878,1.10000,0.90000,1.10000,0.90000
  2606,'STA B2      ', 287.0000,1,   2,   2,   1,1.02038,  11.7878,1.10000,0.90000,1.10000,0.90000
  2607,'VICTORVL    ', 287.0000,1,   2,   2,   1,1.04669,  11.0501,1.10000,0.90000,1.10000,0.90000
  2608,'CASTAIC     ', 230.0000,1,   2,   2,   1,1.02019,   8.0590,1.10000,0.90000,1.10000,0.90000
  2609,'GLENDAL     ', 230.0000,1,   2,   2,   1,0.99945,  11.0018,1.10000,0.90000,1.10000,0.90000
  2610,'HAYNES      ', 230.0000,1,   2,   2,   1,1.00400,  25.0763,1.10000,0.90000,1.10000,0.90000
  2611,'OLIVE       ', 230.0000,1,   2,   2,   1,1.01786,   8.8784,1.10000,0.90000,1.10000,0.90000
  2612,'RINALDI     ', 230.0000,1,   2,   2,   1,1.01500,   8.6741,1.10000,0.90000,1.10000,0.90000
  2613,'RIVER       ', 230.0000,2,   2,   2,   1,0.99429,  14.4280,1.10000,0.90000,1.10000,0.90000
  2614,'STA BLD     ', 230.0000,1,   2,   2,   1,1.00172,  12.9073,1.10000,0.90000,1.10000,0.90000
  2615,'STA E       ', 230.0000,2,   2,   2,   1,1.00536,   9.6569,1.10000,0.90000,1.10000,0.90000
  2616,'STA F       ', 230.0000,1,   2,   2,   1,0.99625,  14.1073,1.10000,0.90000,1.10000,0.90000
  2617,'STA G       ', 230.0000,1,   2,   2,   1,0.99741,  12.4147,1.10000,0.90000,1.10000,0.90000
  2618,'STA J       ', 230.0000,2,   2,   2,   1,1.01246,   7.5522,1.10000,0.90000,1.10000,0.90000
  2619,'SYLMARLA    ', 230.0000,1,   2,   2,   1,1.01377,   8.9997,1.10000,0.90000,1.10000,0.90000
  2620,'VALLEY      ', 230.0000,1,   2,   2,   1,1.01002,   8.6250,1.10000,0.90000,1.10000,0.90000
  2621,'STA B       ', 138.0000,1,   2,   2,   1,1.01247,  11.9097,1.10000,0.90000,1.10000,0.90000
  2630,'HAYNES3G    ',  20.0000,2,   2,   2,   1,1.00488,  25.7243,1.10000,0.90000,1.10000,0.90000
  2631,'OLIVE       ',  20.0000,2,   2,   2,   1,1.01816,   8.9425,1.10000,0.90000,1.10000,0.90000
  2634,'INTERM1G    ',  20.0000,2,   2,   2,   1,1.06179,  48.8267,1.10000,0.90000,1.10000,0.90000
  2637,'OWENS G     ',  20.0000,2,   2,   2,   1,1.01530,   8.6963,1.10000,0.90000,1.10000,0.90000
  2638,'CASTAI4G    ',  20.0000,2,   2,   2,   1,1.02049,   8.0590,1.10000,0.90000,1.10000,0.90000
  2901,'ELDORADO    ', 500.0000,1,   2,   2,   1,1.09571,  13.4168,1.10000,0.90000,1.10000,0.90000
  2902,'MOHAVE      ', 500.0000,1,   2,   2,   1,1.10806,  11.1544,1.10000,0.90000,1.10000,0.90000
  3101,'EMBRCDRD    ', 230.0000,2,   2,   2,   1,0.98576,  -1.1683,1.10000,0.90000,1.10000,0.90000
  3102,'MARTIN      ', 230.0000,1,   2,   2,   1,0.99091,   0.0391,1.10000,0.90000,1.10000,0.90000
  3103,'SANMATEO    ', 230.0000,2,   2,   2,   1,1.00000,   1.6020,1.10000,0.90000,1.10000,0.90000
  3104,'MARTIN      ', 115.0000,2,   2,   2,   1,0.98727,  -5.5338,1.10000,0.90000,1.10000,0.90000
  3105,'POTRERO     ', 115.0000,1,   2,   2,   1,1.00000,  -5.9409,1.10000,0.90000,1.10000,0.90000
  3133,'SANMATEO    ',  20.0000,2,   2,   2,   1,1.00114,   1.6108,1.10000,0.90000,1.10000,0.90000
  3135,'POTRERO     ',  20.0000,2,   2,   2,   1,1.00044,  -5.8779,1.10000,0.90000,1.10000,0.90000
  3201,'C.COSTA     ', 230.0000,2,   2,   2,   1,0.99309,   2.7934,1.10000,0.90000,1.10000,0.90000
  3202,'MORAGA      ', 230.0000,2,   2,   2,   1,0.99398,   3.1412,1.10000,0.90000,1.10000,0.90000
  3203,'NEWARK      ', 230.0000,2,   2,   2,   1,0.99635,   2.6815,1.10000,0.90000,1.10000,0.90000
  3204,'PITSBURG    ', 230.0000,2,   2,   2,   1,1.01000,   5.9900,1.10000,0.90000,1.10000,0.90000
  3205,'SOBRANTE    ', 230.0000,2,   2,   2,   1,0.99723,   3.9209,1.10000,0.90000,1.10000,0.90000
  3234,'PITSBURG    ',  20.0000,2,   2,   2,   1,1.01238,   7.1091,1.10000,0.90000,1.10000,0.90000
  3301,'METCALF     ', 500.0000,1,   2,   2,   1,0.99400,   9.3083,1.10000,0.90000,1.10000,0.90000
  3302,'JEFFERSN    ', 230.0000,2,   2,   2,   1,0.98473,   1.2394,1.10000,0.90000,1.10000,0.90000
  3303,'METCALF     ', 230.0000,2,   2,   2,   1,1.00000,   5.4771,1.10000,0.90000,1.10000,0.90000
  3304,'MONTAVIS    ', 230.0000,2,   2,   2,   1,0.98917,   3.0529,1.10000,0.90000,1.10000,0.90000
  3305,'RAVENSWD    ', 230.0000,2,   2,   2,   1,0.99754,   0.9057,1.10000,0.90000,1.10000,0.90000
  3333,'METCALF     ',  20.0000,2,   2,   2,   1,1.00272,   5.7088,1.10000,0.90000,1.10000,0.90000
  3401,'GREGG       ', 230.0000,2,   2,   2,   1,0.97616,  -1.0197,1.10000,0.90000,1.10000,0.90000
  3402,'HELMS PP    ', 230.0000,1,   2,   2,   1,1.00000,  -1.1710,1.10000,0.90000,1.10000,0.90000
  3403,'MC CALL     ', 230.0000,2,   2,   2,   1,1.00000,  13.1648,1.10000,0.90000,1.10000,0.90000
  3404,'PANOCHE     ', 230.0000,2,   2,   2,   1,0.98932,   6.1511,1.10000,0.90000,1.10000,0.90000
  3405,'WILSON      ', 230.0000,2,   2,   2,   1,0.96781,  -4.5640,1.10000,0.90000,1.10000,0.90000
  3432,'HELMS PP    ',  20.0000,2,   2,   2,   1,1.00075,  -1.1710,1.10000,0.90000,1.10000,0.90000
  3433,'MC CALL     ',  20.0000,2,   2,   2,   1,1.00029,  13.5159,1.10000,0.90000,1.10000,0.90000
  3501,'FULTON      ', 230.0000,2,   2,   2,   1,1.00000,   8.4288,1.10000,0.90000,1.10000,0.90000
  3531,'FULTON      ',  20.0000,2,   2,   2,   1,1.00061,   8.7406,1.10000,0.90000,1.10000,0.90000
  3601,'HUMBOLDT    ', 115.0000,1,   2,   2,   1,1.01500,  22.9342,1.10000,0.90000,1.10000,0.90000
  3631,'HUMBOLDT    ',  20.0000,2,   2,   2,   1,1.01499,  22.9611,1.10000,0.90000,1.10000,0.90000
  3701,'SUMMIT      ', 115.0000,1,   1,   9,   1,1.00000,   8.7931,1.10000,0.90000,1.10000,0.90000
  3731,'SUMMIT      ',  20.0000,2,   1,   9,   1,1.00092,   8.8566,1.10000,0.90000,1.10000,0.90000
  3801,'DIABLO      ', 500.0000,1,   2,   2,   1,1.04900,  18.0746,1.10000,0.90000,1.10000,0.90000
  3802,'GATES       ', 500.0000,1,   2,   2,   1,1.03245,  11.7900,1.10000,0.90000,1.10000,0.90000
  3803,'MIDWAY      ', 500.0000,1,   2,   2,   1,1.04399,  10.9728,1.10000,0.90000,1.10000,0.90000
  3804,'GATES       ', 230.0000,1,   2,   2,   1,1.00027,   8.0036,1.10000,0.90000,1.10000,0.90000
  3805,'MIDWAY      ', 230.0000,2,   2,   2,   1,1.03500,  10.9745,1.10000,0.90000,1.10000,0.90000
  3806,'MORROBAY    ', 230.0000,1,   2,   2,   1,1.01900,  12.6385,1.10000,0.90000,1.10000,0.90000
  3831,'DIABLO1     ',  20.0000,2,   2,   2,   1,1.04899,  18.6234,1.10000,0.90000,1.10000,0.90000
  3835,'MIDWAY      ',  20.0000,2,   2,   2,   1,1.03545,  11.0758,1.10000,0.90000,1.10000,0.90000
  3836,'MORROBAY    ',  20.0000,2,   2,   2,   1,1.01904,  12.8258,1.10000,0.90000,1.10000,0.90000
  3891,'GATES1      ', 500.0000,1,   2,   2,   1,1.05120,   9.7444,1.10000,0.90000,1.10000,0.90000
  3892,'MIDWAY1     ', 500.0000,1,   2,   2,   1,1.03489,  13.6187,1.10000,0.90000,1.10000,0.90000
  3893,'MIDWAY2     ', 500.0000,1,   2,   2,   1,1.03302,   6.0066,1.10000,0.90000,1.10000,0.90000
  3894,'MIDWAY3     ', 500.0000,1,   2,   2,   1,1.03466,  13.6626,1.10000,0.90000,1.10000,0.90000
  3895,'MIDWAY4     ', 500.0000,1,   2,   2,   1,1.03320,   5.9895,1.10000,0.90000,1.10000,0.90000
  3896,'MIDWAY5     ', 500.0000,1,   2,   2,   1,1.03488,  13.7927,1.10000,0.90000,1.10000,0.90000
  3897,'MIDWAY6     ', 500.0000,1,   2,   2,   1,1.03520,   6.1242,1.10000,0.90000,1.10000,0.90000
  3901,'LOSBANOS    ', 500.0000,1,   2,   2,   1,1.01557,  12.0304,1.10000,0.90000,1.10000,0.90000
  3902,'MOSSLAND    ', 500.0000,1,   2,   2,   1,1.00000,  13.0120,1.10000,0.90000,1.10000,0.90000
  3903,'TESLA       ', 500.0000,1,   2,   2,   1,0.98801,  12.6780,1.10000,0.90000,1.10000,0.90000
  3904,'VACA-DIX    ', 500.0000,1,   2,   2,   1,0.98168,  13.2837,1.10000,0.90000,1.10000,0.90000
  3905,'TABLE MT    ', 500.0000,1,   2,   2,   1,0.99405,  23.4459,1.10000,0.90000,1.10000,0.90000
  3906,'ROUND MT    ', 500.0000,1,   2,   2,   1,1.04806,  31.5386,1.10000,0.90000,1.10000,0.90000
  3907,'BELLOTA     ', 230.0000,2,   2,   2,   1,0.97352,  -4.3679,1.10000,0.90000,1.10000,0.90000
  3908,'BRIGHTON    ', 230.0000,1,   2,   2,   1,0.96470,  -2.7232,1.10000,0.90000,1.10000,0.90000
  3909,'COLGATE     ', 230.0000,1,   2,   2,   1,0.95331,   2.4017,1.10000,0.90000,1.10000,0.90000
  3910,'CORTINA     ', 230.0000,1,   2,   2,   1,0.93653,   2.6285,1.10000,0.90000,1.10000,0.90000
  3911,'COTWDPGE    ', 230.0000,1,   2,   2,   1,1.01847,  23.1726,1.10000,0.90000,1.10000,0.90000
  3912,'GLENN       ', 230.0000,1,   2,   2,   1,0.98648,  11.1266,1.10000,0.90000,1.10000,0.90000
  3913,'GOLDHILL    ', 230.0000,2,   2,   2,   1,0.98105,  -0.0168,1.10000,0.90000,1.10000,0.90000
  3914,'IGNACIO     ', 230.0000,1,   2,   2,   1,0.98821,   4.3022,1.10000,0.90000,1.10000,0.90000
  3915,'LAKEVILE    ', 230.0000,1,   2,   2,   1,0.98832,   4.4496,1.10000,0.90000,1.10000,0.90000
  3916,'LOGAN CR    ', 230.0000,1,   2,   2,   1,0.98276,   9.7167,1.10000,0.90000,1.10000,0.90000
  3917,'LOSBANOS    ', 230.0000,1,   2,   2,   1,1.00108,   8.3699,1.10000,0.90000,1.10000,0.90000
  3918,'MOSSLAND    ', 230.0000,2,   2,   2,   1,0.99355,   7.2305,1.10000,0.90000,1.10000,0.90000
  3919,'PALERMO     ', 230.0000,1,   2,   2,   1,0.95153,   5.4150,1.10000,0.90000,1.10000,0.90000
  3920,'RIO OSO     ', 230.0000,1,   2,   2,   1,0.96986,   2.4541,1.10000,0.90000,1.10000,0.90000
  3921,'ROUND MT    ', 230.0000,1,   2,   2,   1,1.07000,  34.3095,1.10000,0.90000,1.10000,0.90000
  3922,'TABLE MT    ', 230.0000,1,   2,   2,   1,0.96603,  11.6990,1.10000,0.90000,1.10000,0.90000
  3923,'TESLA       ', 230.0000,2,   2,   2,   1,1.01421,   0.4904,1.10000,0.90000,1.10000,0.90000
  3924,'VACA-DIX    ', 230.0000,2,   2,   2,   1,0.98738,   5.2115,1.10000,0.90000,1.10000,0.90000
  3925,'COTWDPGE    ', 115.0000,1,   2,   2,   1,1.01793,  23.0435,1.10000,0.90000,1.10000,0.90000
  3926,'RIO OSO     ', 115.0000,1,   2,   2,   1,0.97978,   4.5834,1.10000,0.90000,1.10000,0.90000
  3931,'ROUND MT    ',  20.0000,2,   2,   2,   1,1.07163,  34.6710,1.10000,0.90000,1.10000,0.90000
  3932,'MOSSLAND    ',  20.0000,2,   2,   2,   1,1.00008,  13.4001,1.10000,0.90000,1.10000,0.90000
  3933,'TESLA       ',  20.0000,3,   2,   2,   1,1.02000,   0.0000,1.10000,0.90000,1.10000,0.90000
  4001,'MALIN       ', 500.0000,1,   3,  11,   1,1.07959,  36.2121,1.10000,0.90000,1.10000,0.90000
  4002,'SUMMER L    ', 500.0000,1,   3,  11,   1,1.10272,  46.0902,1.10000,0.90000,1.10000,0.90000
  4003,'BURNS       ', 500.0000,1,   3,  11,   1,1.12647,  60.6015,1.10000,0.90000,1.10000,0.90000
  4004,'GRIZZLY     ', 500.0000,1,   3,  11,   1,1.10668,  47.2141,1.10000,0.90000,1.10000,0.90000
  4005,'JOHN DAY    ', 500.0000,1,   3,  11,   1,1.12100,  57.0545,1.10000,0.90000,1.10000,0.90000
  4006,'BIG EDDY    ', 500.0000,1,   3,  11,   1,1.11873,  54.6079,1.10000,0.90000,1.10000,0.90000
  4007,'CELILOCA    ', 500.0000,1,   3,  11,   1,1.11922,  54.4846,1.10000,0.90000,1.10000,0.90000
  4008,'MALIN       ', 345.0000,1,   3,  11,   1,1.07337,  33.9319,1.10000,0.90000,1.10000,0.90000
  4009,'BIG EDDY    ', 230.0000,2,   3,  11,   1,1.13123,  53.0642,1.10000,0.90000,1.10000,0.90000
  4010,'CELILO      ', 230.0000,1,   3,  11,   1,1.12820,  52.6974,1.10000,0.90000,1.10000,0.90000
  4031,'MALIN       ',  20.0000,2,   3,  11,   1,1.08638,  36.6342,1.10000,0.90000,1.10000,0.90000
  4035,'JOHN DAY    ',  20.0000,2,   3,  11,   1,1.12815,  57.6299,1.10000,0.90000,1.10000,0.90000
  4039,'DALLES21    ',  20.0000,2,   3,  13,   1,1.13833,  53.6193,1.10000,0.90000,1.10000,0.90000
  4090,'MALIN1      ', 500.0000,1,   3,  11,   1,1.09902,  44.6647,1.10000,0.90000,1.10000,0.90000
  4091,'GRIZZLY1    ', 500.0000,1,   3,  11,   1,1.10915,  46.7356,1.10000,0.90000,1.10000,0.90000
  4092,'GRIZZLY2    ', 500.0000,1,   3,  11,   1,1.09658,  38.9463,1.10000,0.90000,1.10000,0.90000
  4093,'GRIZZLY3    ', 500.0000,1,   3,  11,   1,1.09717,  37.8665,1.10000,0.90000,1.10000,0.90000
  4094,'GRIZZLY4    ', 500.0000,1,   3,  11,   1,1.10259,  46.1146,1.10000,0.90000,1.10000,0.90000
  4095,'GRIZZLY5    ', 500.0000,1,   3,  11,   1,1.09582,  38.4738,1.10000,0.90000,1.10000,0.90000
  4096,'GRIZZLY6    ', 500.0000,1,   3,  11,   1,1.09657,  37.3324,1.10000,0.90000,1.10000,0.90000
  4097,'GRIZZLY7    ', 500.0000,1,   3,  11,   1,1.10192,  46.0544,1.10000,0.90000,1.10000,0.90000
  4101,'COULEE      ', 500.0000,1,   3,  13,   1,1.12800,  82.3512,1.10000,0.90000,1.10000,0.90000
  4102,'HANFORD     ', 500.0000,1,   3,  13,   1,1.09600,  71.8494,1.10000,0.90000,1.10000,0.90000
  4103,'BELL        ', 500.0000,1,   3,  13,   1,1.09331,  67.3953,1.10000,0.90000,1.10000,0.90000
  4104,'BELL        ', 230.0000,1,   3,  13,   1,1.07084,  56.4376,1.10000,0.90000,1.10000,0.90000
  4131,'COULEE      ',  20.0000,2,   3,  13,   1,1.13268,  84.4504,1.10000,0.90000,1.10000,0.90000
  4132,'HANFORD     ',  20.0000,2,   3,  13,   1,1.09995,  73.6493,1.10000,0.90000,1.10000,0.90000
  4201,'NORTH       ', 500.0000,2,   3,  13,   1,1.10752,  74.6209,1.10000,0.90000,1.10000,0.90000
  4202,'WCASCADE    ', 500.0000,1,   3,  13,   1,1.06000,  55.2618,1.10000,0.90000,1.10000,0.90000
  4203,'WILLAMET    ', 500.0000,1,   3,  13,   1,1.01292,  49.8421,1.10000,0.90000,1.10000,0.90000
  4204,'MERIDIAN    ', 500.0000,1,   3,  13,   1,1.06773,  37.4338,1.10000,0.90000,1.10000,0.90000
  4231,'NORTH G3    ',  20.0000,2,   3,  13,   1,1.12158,  75.6639,1.10000,0.90000,1.10000,0.90000
  4232,'WCASCADE    ',  20.0000,2,   3,  13,   1,1.05979,  55.5132,1.10000,0.90000,1.10000,0.90000
  5001,'CANADA      ', 500.0000,1,   3,   4,   1,1.05000,  74.9800,1.10000,0.90000,1.10000,0.90000
  5002,'CANALB      ', 500.0000,1,   3,   1,   1,1.05500,  75.8306,1.10000,0.90000,1.10000,0.90000
  5003,'CA230TO     ', 230.0000,1,   3,   1,   1,1.05277,  69.3746,1.10000,0.90000,1.10000,0.90000
  5004,'CA230       ', 230.0000,1,   3,   4,   1,1.06355,  62.8046,1.10000,0.90000,1.10000,0.90000
  5031,'CANAD G1    ',  20.0000,2,   3,   4,   1,1.04438,  76.9535,1.10000,0.90000,1.10000,0.90000
  5032,'CMAIN GM    ',  20.0000,2,   3,   1,   1,1.06127,  78.5158,1.10000,0.90000,1.10000,0.90000
  6101,'MIDPOINT    ', 500.0000,1,   3,   6,   1,1.14080,  76.9907,1.10000,0.90000,1.10000,0.90000
  6102,'MIDPOINT    ', 345.0000,1,   3,   6,   1,1.13000,  81.3482,1.10000,0.90000,1.10000,0.90000
  6103,'BORAH       ', 345.0000,1,   3,   6,   1,1.08972,  77.6558,1.10000,0.90000,1.10000,0.90000
...
0 / END OF BUS DATA, BEGIN LOAD DATA
  1002,'1 ',1,   1,   3,   226.842,  -600.000,     0.000,     0.000,     0.000,     0.000,   1,1,0
  1003,'1 ',1,   1,  10,  2153.320,   366.855,     0.000,     0.000,     0.000,     0.000,   1,1,0
  1004,'1 ',1,   1,  10,  1037.949,     5.521,     0.000,     0.000,     0.000,     0.000,   1,1,0
  1101,'1 ',1,   1,   3,  4527.366,  -137.044,     0.000,     0.000,     0.000,     0.000,   1,1,0
  1102,'1 ',1,   1,   3,   176.445,    23.004,     0.000,     0.000,     0.000,     0.000,   1,1,0
  1201,'1 ',1,   1,   3,   166.989,    -2.012,     0.000,     0.000,     0.000,     0.000,   1,1,0
  1202,'1 ',1,   1,   3,   875.610,   287.132,     0.000,     0.000,     0.000,     0.000,   1,1,0
  1301,'1 ',1,   1,   3,  2704.779,   352.826,     0.000,     0.000,     0.000,     0.000,   1,1,0
  1302,'1 ',1,   1,   9,    17.556,     2.304,     0.000,     0.000,     0.000,     0.000,   1,1,0
  1303,'1 ',1,   1,   9,  6235.137,   813.349,     0.000,     0.000,     0.000,     0.000,   1,1,0
  1401,'1 ',1,   1,   3,  6535.537,  1524.594,     0.000,     0.000,     0.000,     0.000,   1,1,0
  1402,'1 ',1,   1,   3,  5366.628,  -600.161,     0.000,     0.000,     0.000,     0.000,   1,1,0
  2000,'1 ',1,   2,   7,  2207.188,   287.916,     0.000,     0.000,     0.000,     0.000,   1,1,0
  2100,'1 ',1,   2,   2,   281.150,    54.830,     0.000,     0.000,     0.000,     0.000,   1,1,0
  2202,'1 ',1,   2,   2,  1545.957,   268.567,     0.000,     0.000,     0.000,     0.000,   1,1,0
  2203,'1 ',1,   2,   2,  1708.552,   278.273,     0.000,     0.000,     0.000,     0.000,   1,1,0
  2400,'1 ',1,   2,   2,   843.297,    76.664,     0.000,     0.000,     0.000,     0.000,   1,1,0
  2401,'1 ',1,   2,   2,   882.365,   105.214,     0.000,     0.000,     0.000,     0.000,   1,1,0
  2402,'1 ',1,   2,   2,  1080.022,    81.979,     0.000,     0.000,     0.000,     0.000,   1,1,0
  2403,'1 ',1,   2,   2,  1050.001,    38.542,     0.000,     0.000,     0.000,     0.000,   1,1,0
  2405,'1 ',1,   2,   2,   824.686,    22.901,     0.000,     0.000,     0.000,     0.000,   1,1,0
  2406,'1 ',1,   2,   2,   737.405,   -40.751,     0.000,     0.000,     0.000,     0.000,   1,1,0
  2407,'1 ',1,   2,   2,  1732.775,   -36.535,     0.000,     0.000,     0.000,     0.000,   1,1,0
  2408,'1 ',1,   2,   2,  1743.278,   -72.623,     0.000,     0.000,     0.000,     0.000,   1,1,0
  2409,'1 ',1,   2,   2,  1601.778,   -86.698,     0.000,     0.000,     0.000,     0.000,   1,1,0
  2410,'1 ',1,   2,   2,  1576.785,    58.184,     0.000,     0.000,     0.000,     0.000,   1,1,0
  2411,'1 ',1,   2,   2,  1087.628,    75.956,     0.000,     0.000,     0.000,     0.000,   1,1,0
  2502,'1 ',1,   2,   2,  2369.146,   -91.905,     0.000,     0.000,     0.000,     0.000,   1,1,0
  2503,'1 ',1,   2,   2,  1845.926,   201.991,     0.000,     0.000,     0.000,     0.000,   1,1,0
  2600,'1 ',1,   2,   2, -1863.906,     0.000,     0.000,     0.000,     0.000,     0.000,   1,1,0
  2602,'1 ',1,   2,   2,    99.278,    12.955,     0.000,     0.000,     0.000,     0.000,   1,1,0
  2604,'1 ',1,   2,   2,  2050.781,     0.000,     0.000,     0.000,     0.000,     0.000,   1,1,0
  2608,'1 ',1,   2,   2,    99.278,    12.955,     0.000,     0.000,     0.000,     0.000,   1,1,0
  2609,'1 ',1,   2,   2,   134.026,    26.805,     0.000,     0.000,     0.000,     0.000,   1,1,0
  2610,'1 ',1,   2,   2,    99.278,    12.955,     0.000,     0.000,     0.000,     0.000,   1,1,0
  2611,'1 ',1,   2,   2,    99.278,    12.955,     0.000,     0.000,     0.000,     0.000,   1,1,0
  2612,'1 ',1,   2,   2,   120.127,    24.819,     0.000,     0.000,     0.000,     0.000,   1,1,0
  2613,'1 ',1,   2,   2,   317.693,    64.531,     0.000,     0.000,     0.000,     0.000,   1,1,0
  2614,'1 ',1,   2,   2,   137.005,    27.798,     0.000,     0.000,     0.000,     0.000,   1,1,0
  2615,'1 ',1,   2,   2,   801.977,   131.149,     0.000,     0.000,     0.000,     0.000,   1,1,0
  2616,'1 ',1,   2,   2,   116.157,    23.827,     0.000,     0.000,     0.000,     0.000,   1,1,0
  2617,'1 ',1,   2,   2,   120.128,    24.819,     0.000,     0.000,     0.000,     0.000,   1,1,0
  2618,'1 ',1,   2,   2,   881.302,    -6.155,     0.000,     0.000,     0.000,     0.000,   1,1,0
  2619,'1 ',1,   2,   2, -2773.830,     0.000,     0.000,     0.000,     0.000,     0.000,   1,1,0
  2620,'1 ',1,   2,   2,   203.720,    17.473,     0.000,     0.000,     0.000,     0.000,   1,1,0
  2621,'1 ',1,   2,   2,   235.491,   -62.746,     0.000,     0.000,     0.000,     0.000,   1,1,0
  3101,'1 ',1,   2,   2,   341.307,    52.829,     0.000,     0.000,     0.000,     0.000,   1,1,0
  3102,'1 ',1,   2,   2,   159.465,    24.929,     0.000,     0.000,     0.000,     0.000,   1,1,0
  3103,'1 ',1,   2,   2,   419.611,    59.777,     0.000,     0.000,     0.000,     0.000,   1,1,0
  3104,'1 ',1,   2,   2,   309.973,    40.133,     0.000,     0.000,     0.000,     0.000,   1,1,0
  3105,'1 ',1,   2,   2,   239.302,    49.091,     0.000,     0.000,     0.000,     0.000,   1,1,0
  3201,'1 ',1,   2,   2,   462.477,    97.849,     0.000,     0.000,     0.000,     0.000,   1,1,0
  3202,'1 ',1,   2,   2,   586.180,    83.474,     0.000,     0.000,     0.000,     0.000,   1,1,0
  3203,'1 ',1,   2,   2,   657.104,   158.475,     0.000,     0.000,     0.000,     0.000,   1,1,0
  3204,'1 ',1,   2,   2,   668.788,    95.313,     0.000,     0.000,     0.000,     0.000,   1,1,0
  3205,'1 ',1,   2,   2,   546.059,    77.781,     0.000,     0.000,     0.000,     0.000,   1,1,0
  3302,'1 ',1,   2,   2,   345.326,    85.790,     0.000,     0.000,     0.000,     0.000,   1,1,0
  3303,'1 ',1,   2,   2,   625.411,   150.715,     0.000,     0.000,     0.000,     0.000,   1,1,0
  3304,'1 ',1,   2,   2,   533.480,   122.615,     0.000,     0.000,     0.000,     0.000,   1,1,0
  3305,'1 ',1,   2,   2,   430.321,    61.225,     0.000,     0.000,     0.000,     0.000,   1,1,0
  3401,'1 ',1,   2,   2,   557.707,   135.909,     0.000,     0.000,     0.000,     0.000,   1,1,0
  3403,'1 ',1,   2,   2,   515.969,    73.583,     0.000,     0.000,     0.000,     0.000,   1,1,0
  3404,'1 ',1,   2,   2,   438.463,    62.076,     0.000,     0.000,     0.000,     0.000,   1,1,0
  3405,'1 ',1,   2,   2,   448.896,    63.723,     0.000,     0.000,     0.000,     0.000,   1,1,0
  3501,'1 ',1,   2,   2,   625.016,    89.015,     0.000,     0.000,     0.000,     0.000,   1,1,0
  3601,'1 ',1,   2,   2,   104.856,    14.845,     0.000,     0.000,     0.000,     0.000,   1,1,0
  3701,'1 ',1,   1,   9,   317.051,    15.847,     0.000,     0.000,     0.000,     0.000,   1,1,0
  3801,'1 ',1,   2,   2,   191.223,    47.411,     0.000,     0.000,     0.000,     0.000,   1,1,0
  3804,'1 ',1,   2,   2,   223.641,    55.319,     0.000,     0.000,     0.000,     0.000,   1,1,0
  3805,'1 ',1,   2,   2,   499.389,   163.106,     0.000,     0.000,     0.000,     0.000,   1,1,0
  3806,'1 ',1,   2,   2,   289.586,    41.366,     0.000,     0.000,     0.000,     0.000,   1,1,0
  3902,'1 ',1,   2,   2,   152.991,    38.248,     0.000,     0.000,     0.000,     0.000,   1,1,0
  3903,'1 ',1,   2,   2,   213.253,    30.271,     0.000,     0.000,     0.000,     0.000,   1,1,0
  3907,'1 ',1,   2,   2,   461.358,    63.071,     0.000,     0.000,     0.000,     0.000,   1,1,0
  3908,'1 ',1,   2,   2,   200.281,    24.716,     0.000,     0.000,     0.000,     0.000,   1,1,0
  3909,'1 ',1,   2,   2,   170.960,    39.786,     0.000,     0.000,     0.000,     0.000,   1,1,0
  3910,'1 ',1,   2,   2,   241.844,    34.442,     0.000,     0.000,     0.000,     0.000,   1,1,0
  3911,'1 ',1,   2,   2,   233.138,    47.116,     0.000,     0.000,     0.000,     0.000,   1,1,0
  3912,'1 ',1,   2,   2,   174.507,    -0.634,     0.000,     0.000,     0.000,     0.000,   1,1,0
  3913,'1 ',1,   2,   2,   329.548,    43.435,     0.000,     0.000,     0.000,     0.000,   1,1,0
  3914,'1 ',1,   2,   2,   227.755,    52.549,     0.000,     0.000,     0.000,     0.000,   1,1,0
  3915,'1 ',1,   2,   2,   254.460,    53.403,     0.000,     0.000,     0.000,     0.000,   1,1,0
  3916,'1 ',1,   2,   2,   155.005,     0.000,     0.000,     0.000,     0.000,     0.000,   1,1,0
  3917,'1 ',1,   2,   2,   238.189,    43.995,     0.000,     0.000,     0.000,     0.000,   1,1,0
  3918,'1 ',1,   2,   2,   319.281,    75.463,     0.000,     0.000,     0.000,     0.000,   1,1,0
  3919,'1 ',1,   2,   2,   184.512,    24.095,     0.000,     0.000,     0.000,     0.000,   1,1,0
  3920,'1 ',1,   2,   2,   172.503,    23.677,     0.000,     0.000,     0.000,     0.000,   1,1,0
  3921,'1 ',1,   2,   2,   150.890,    34.821,     0.000,     0.000,     0.000,     0.000,   1,1,0
  3922,'1 ',1,   2,   2,   253.450,    31.920,     0.000,     0.000,     0.000,     0.000,   1,1,0
  3923,'1 ',1,   2,   2,   399.063,    67.021,     0.000,     0.000,     0.000,     0.000,   1,1,0
  3924,'1 ',1,   2,   2,   332.490,    47.166,     0.000,     0.000,     0.000,     0.000,   1,1,0
  3926,'1 ',1,   2,   2,   267.355,    16.668,     0.000,     0.000,     0.000,     0.000,   1,1,0
  4002,'1 ',1,   3,  11,   168.696,    22.001,     0.000,     0.000,     0.000,     0.000,   1,1,0
  4004,'1 ',1,   3,  11,   270.476,    35.304,     0.000,     0.000,     0.000,     0.000,   1,1,0
  4005,'1 ',1,   3,  11,   480.114,   157.419,     0.000,     0.000,     0.000,     0.000,   1,1,0
  4008,'1 ',1,   3,  11,   285.145,    37.198,     0.000,     0.000,     0.000,     0.000,   1,1,0
  4009,'1 ',1,   3,  11,  2208.742,   431.395,     0.000,     0.000,     0.000,     0.000,   1,1,0
  4010,'1 ',1,   3,  11,  3133.542,     0.000,     0.000,     0.000,     0.000,     0.000,   1,1,0
  4101,'1 ',1,   3,  13,   995.028,   129.784,     0.000,     0.000,     0.000,     0.000,   1,1,0
  4102,'1 ',1,   3,  13,   480.649,    68.664,     0.000,     0.000,     0.000,     0.000,   1,1,0
  4103,'1 ',1,   3,  13,    11.534,     1.485,     0.000,     0.000,     0.000,     0.000,   1,1,0
  4104,'1 ',1,   3,  13,  2521.452,   328.093,     0.000,     0.000,     0.000,     0.000,   1,1,0
  4201,'1 ',1,   3,  13,  5762.659,   461.013,     0.000,     0.000,     0.000,     0.000,   1,1,0
  4202,'1 ',1,   3,  13,  4558.239,   594.626,     0.000,     0.000,     0.000,     0.000,   1,1,0
  4203,'1 ',1,   3,  13,  4379.174,   571.213,     0.000,     0.000,     0.000,     0.000,   1,1,0
  4204,'1 ',1,   3,  13,  1014.517,   132.339,     0.000,     0.000,     0.000,     0.000,   1,1,0
  5001,'1 ',1,   3,   4,  7574.052,  1721.375,     0.000,     0.000,     0.000,     0.000,   1,1,0
  5002,'1 ',1,   3,   1,  9003.983,  1174.359,     0.000,     0.000,     0.000,     0.000,   1,1,0
  5003,'1 ',1,   3,   1,   616.617,    80.618,     0.000,     0.000,     0.000,     0.000,   1,1,0
  6102,'1 ',1,   3,   6,  1053.144,  -345.277,     0.000,     0.000,     0.000,     0.000,   1,1,0
  6103,'1 ',1,   3,   6,   391.884,    51.109,     0.000,     0.000,     0.000,     0.000,   1,1,0
  6104,'1 ',1,   3,   6,  1694.827,   221.051,     0.000,     0.000,     0.000,     0.000,   1,1,0
  6201,'1 ',1,   3,   8,   205.820,    26.857,     0.000,     0.000,     0.000,     0.000,   1,1,0
  6202,'1 ',1,   3,   8,    88.645,    13.505,     0.000,     0.000,     0.000,     0.000,   1,1,0
  6203,'1 ',1,   3,   8,   612.344,   145.092,     0.000,     0.000,     0.000,     0.000,   1,1,0
  6204,'1 ',1,   3,   8,   698.958,   156.310,     0.000,     0.000,     0.000,     0.000,   1,1,0
  6205,'1 ',1,   3,   8,   489.283,    86.344,     0.000,     0.000,     0.000,     0.000,   1,1,0
  6301,'1 ',1,   3,  14,   516.375,    67.362,     0.000,     0.000,     0.000,     0.000,   1,1,0
  6302,'1 ',1,   3,  14,   591.831,    77.222,     0.000,     0.000,     0.000,     0.000,   1,1,0
  6303,'1 ',1,   3,  14,   746.602,    97.404,     0.000,     0.000,     0.000,     0.000,   1,1,0
  6305,'1 ',1,   3,  14,    60.232,    19.752,     0.000,     0.000,     0.000,     0.000,   1,1,0
  6401,'1 ',1,   1,   9,  1672.454,   218.169,     0.000,     0.000,     0.000,     0.000,   1,1,0
  6402,'1 ',1,   1,   9,   272.521,    35.568,     0.000,     0.000,     0.000,     0.000,   1,1,0
  6403,'1 ',1,   1,   9,     2.198,     0.272,     0.000,     0.000,     0.000,     0.000,   1,1,0
  6404,'1 ',1,   1,   9,    28.981,     3.776,     0.000,     0.000,     0.000,     0.000,   1,1,0
  6501,'1 ',1,   3,  12,   195.548,    64.130,     0.000,     0.000,     0.000,     0.000,   1,1,0
  6502,'1 ',1,   3,  12,  1555.598,   277.679,     0.000,     0.000,     0.000,     0.000,   1,1,0
  6503,'1 ',1,   3,  12,   441.153,   144.603,     0.000,     0.000,     0.000,     0.000,   1,1,0
  6504,'1 ',1,   3,  12,   296.971,    38.731,     0.000,     0.000,     0.000,     0.000,   1,1,0
  6505,'1 ',1,   3,  12,     6.795,     2.231,     0.000,     0.000,     0.000,     0.000,   1,1,0
  6507,'1 ',1,   3,  12,   540.787,   -61.357,     0.000,     0.000,     0.000,     0.000,   1,1,0
  6508,'1 ',1,   3,  12,   131.835,    43.209,     0.000,     0.000,     0.000,     0.000,   1,1,0
  6509,'1 ',1,   3,  12,     8.593,     2.817,     0.000,     0.000,     0.000,     0.000,   1,1,0
  6510,'1 ',1,   3,  12,  1900.043,  -103.882,     0.000,     0.000,     0.000,     0.000,   1,1,0
  7001,'1 ',1,   3,   5,  7000.918,   772.350,     0.000,     0.000,     0.000,     0.000,   1,1,0
  7002,'1 ',1,   3,   5,  2554.834,  -138.069,     0.000,     0.000,     0.000,     0.000,   1,1,0
  8003,'1 ',1,   2,   2,   652.672,    85.141,     0.000,     0.000,     0.000,     0.000,   1,1,0
  8004,'1 ',1,   2,   2,  3787.893,   494.110,     0.000,     0.000,     0.000,     0.000,   1,1,0
  8005,'1 ',1,   2,   2,  1321.252,   172.374,     0.000,     0.000,     0.000,     0.000,   1,1,0
0 / END OF LOAD DATA, BEGIN FIXED SHUNT DATA
0 / END OF FIXED SHUNT DATA, BEGIN GENERATOR DATA
  1003,'DP',    19.000,     0.000,     0.000,     0.000,1.00000,     0,    94.000, 0.00000E+0, 2.00000E-1, 0.00000E+0, 0.00000E+0,1.00000,1,  100.0,    89.300,     0.000,   1,1.0000,   0,   1.0,   0,   1.0,   0,   1.0,3, 1.0000
  1004,'DP',     9.000,     0.000,     0.000,     0.000,1.00000,     0,    45.000, 0.00000E+0, 2.00000E-1, 0.00000E+0, 0.00000E+0,1.00000,1,  100.0,    42.750,     0.000,   1,1.0000,   0,   1.0,   0,   1.0,   0,   1.0,3, 1.0000
  1032,'C ',   712.000,   192.666,  1030.000, -1030.000,1.01400,  1002,   873.000, 0.00000E+0, 2.00000E-1, 0.00000E+0, 0.00000E+0,1.00000,1,  100.0,   829.350,     0.000,   1,1.0000
  1032,'G ',   856.000,   231.633,   357.000,  -357.000,1.01400,  1002,  1050.000, 0.00000E+0, 2.00000E-1, 0.00000E+0, 0.00000E+0,1.00000,1,  100.0,   997.500,     0.000,   1,1.0000
  1032,'S ',   520.000,   140.711,   360.000,  -360.000,1.01400,  1002,   638.000, 0.00000E+0, 2.00000E-1, 0.00000E+0, 0.00000E+0,1.00000,1,  100.0,   606.100,     0.000,   1,1.0000,   0,   1.0,   0,   1.0,   0,   1.0,1, 1.0000
  1034,'C ',  1847.000,   173.871,  2294.000, -2294.000,1.01400,  1002,  1944.000, 0.00000E+0, 2.00000E-1, 0.00000E+0, 0.00000E+0,1.00000,1,  100.0,  1846.800,     0.000,   1,1.0000
  1034,'G ',  2565.000,   241.462,   918.000,  -918.000,1.01400,  1002,  2700.000, 0.00000E+0, 2.00000E-1, 0.00000E+0, 0.00000E+0,1.00000,1,  100.0,  2565.000,     0.000,   1,1.0000
  1034,'S ',     0.000,     0.000,     0.000,     0.000,1.01400,  1002,     1.000, 0.00000E+0, 2.00000E-1, 0.00000E+0, 0.00000E+0,1.00000,0,  100.0,     0.100,     0.000,   1,1.0000,   0,   1.0,   0,   1.0,   0,   1.0,1, 1.0000
  1034,'W ',  1590.000,   149.678,   800.000,  -800.000,1.01400,  1002,  1682.000, 0.00000E+0, 2.00000E-1, 0.00000E+0, 0.00000E+0,1.00000,1,  100.0,  1597.900,     0.000,   1,1.0000,   0,   1.0,   0,   1.0,   0,   1.0,1, 1.0000
  1101,'DP',    59.000,     0.000,     0.000,     0.000,1.00000,     0,   295.000, 0.00000E+0, 2.00000E-1, 0.00000E+0, 0.00000E+0,1.00000,1,  100.0,   280.250,     0.000,   1,1.0000,   0,   1.0,   0,   1.0,   0,   1.0,3, 1.0000
  1131,'C ',   530.000,    28.513,   308.000,  -308.000,1.01000,  1101,  1268.000, 0.00000E+0, 2.00000E-1, 0.00000E+0, 0.00000E+0,1.00000,1,  100.0,  1204.600,     0.000,   1,1.0000
  1131,'G ',  2064.000,   111.039,  1916.000, -1916.000,1.01000,  1101,  4934.000, 0.00000E+0, 2.00000E-1, 0.00000E+0, 0.00000E+0,1.00000,1,  100.0,  4687.300,     0.000,   1,1.0000
  1131,'S ',     0.000,     0.000,     0.000,     0.000,1.01000,  1101,     1.000, 0.00000E+0, 2.00000E-1, 0.00000E+0, 0.00000E+0,1.00000,0,  100.0,     0.100,     0.000,   1,1.0000,   0,   1.0,   0,   1.0,   0,   1.0,1, 1.0000
  1232,'C ',  2728.000,   154.075,  1208.000, -1208.000,1.08000,  1202,  4977.000, 0.00000E+0, 2.00000E-1, 0.00000E+0, 0.00000E+0,1.00000,1,  100.0,  4728.150,     0.000,   1,1.0000
  1232,'H ',   657.000,    37.107,   628.000,  -628.000,1.08000,  1202,  1199.000, 0.00000E+0, 2.00000E-1, 0.00000E+0, 0.00000E+0,1.00000,1,  100.0,  1139.050,     0.000,   1,1.0000
  1232,'S ',     0.000,     0.000,     0.000,     0.000,1.08000,  1202,     1.000, 0.00000E+0, 2.00000E-1, 0.00000E+0, 0.00000E+0,1.00000,0,  100.0,     0.100,     0.000,   1,1.0000,   0,   1.0,   0,   1.0,   0,   1.0,1, 1.0000
  1301,'DP',    35.000,     0.000,     0.000,     0.000,1.00000,     0,   176.000, 0.00000E+0, 2.00000E-1, 0.00000E+0, 0.00000E+0,1.00000,1,  100.0,   167.200,     0.000,   1,1.0000,   0,   1.0,   0,   1.0,   0,   1.0,3, 1.0000
  1303,'DP',    45.000,     0.000,     0.000,     0.000,1.00000,     0,   224.000, 0.00000E+0, 2.00000E-1, 0.00000E+0, 0.00000E+0,1.00000,1,  100.0,   212.800,     0.000,   1,1.0000,   0,   1.0,   0,   1.0,   0,   1.0,3, 1.0000
  1331,'G ',  1986.000,    32.782,   841.000,  -841.000,1.04500,  1301,  2167.000, 0.00000E+0, 2.00000E-1, 0.00000E+0, 0.00000E+0,1.00000,1,  100.0,  2058.650,     0.000,   1,1.0000
  1331,'H ',  2133.000,    35.209,  1219.000, -1219.000,1.04500,  1301,  2328.000, 0.00000E+0, 2.00000E-1, 0.00000E+0, 0.00000E+0,1.00000,1,  100.0,  2211.600,     0.000,   1,1.0000
  1331,'S ',     0.000,     0.000,     0.000,     0.000,1.04500,  1301,     1.000, 0.00000E+0, 2.00000E-1, 0.00000E+0, 0.00000E+0,1.00000,0,  100.0,     0.100,     0.000,   1,1.0000,   0,   1.0,   0,   1.0,   0,   1.0,1, 1.0000
  1333,'C ',   218.000,    32.234,   303.000,  -303.000,1.00500,  1303,   418.000, 0.00000E+0, 2.00000E-1, 0.00000E+0, 0.00000E+0,1.00000,1,  100.0,   397.100,     0.000,   1,1.0000
  1333,'G ',  3662.000,   541.473,  2746.000, -2746.000,1.00500,  1303,  7011.000, 0.00000E+0, 2.00000E-1, 0.00000E+0, 0.00000E+0,1.00000,1,  100.0,  6660.450,     0.000,   1,1.0000
  1333,'S ',  1266.000,   187.194,  1300.000, -1300.000,1.00500,  1303,  2423.000, 0.00000E+0, 2.00000E-1, 0.00000E+0, 0.00000E+0,1.00000,1,  100.0,  2301.850,     0.000,   1,1.0000,   0,   1.0,   0,   1.0,   0,   1.0,1, 1.0000
  1401,'DP',    85.000,     0.000,     0.000,     0.000,1.00000,     0,   425.000, 0.00000E+0, 2.00000E-1, 0.00000E+0, 0.00000E+0,1.00000,1,  100.0,   403.750,     0.000,   1,1.0000,   0,   1.0,   0,   1.0,   0,   1.0,3, 1.0000
  1402,'DP',    70.000,     0.000,     0.000,     0.000,1.00000,     0,   349.000, 0.00000E+0, 2.00000E-1, 0.00000E+0, 0.00000E+0,1.00000,1,  100.0,   331.550,     0.000,   1,1.0000,   0,   1.0,   0,   1.0,   0,   1.0,3, 1.0000
  1431,'G ',  5129.000,   792.100,  3559.000, -3559.000,1.03500,  1401,  9170.000, 0.00000E+0, 2.00000E-1, 0.00000E+0, 0.00000E+0,1.00000,1,  100.0,  8711.500,     0.000,   1,1.0000
  1431,'N ',  2355.000,   363.696,  2057.000, -2057.000,1.03500,  1401,  4210.000, 0.00000E+0, 2.00000E-1, 0.00000E+0, 0.00000E+0,1.00000,1,  100.0,  3999.500,     0.000,   1,1.0000
  1431,'S ',  1353.000,   208.951,  1000.000, -1000.000,1.03500,  1401,  2419.000, 0.00000E+0, 2.00000E-1, 0.00000E+0, 0.00000E+0,1.00000,1,  100.0,  2298.050,     0.000,   1,1.0000,   0,   1.0,   0,   1.0,   0,   1.0,1, 1.0000
  2030,'E ',   605.000,    76.200,   350.000,  -350.000,1.00000,  2000,   699.000, 0.00000E+0, 2.00000E-1, 0.00000E+0, 0.00000E+0,1.00000,1,  100.0,   664.050,     0.000,   1,1.0000
  2030,'G ',  1853.000,   233.385,  1070.000, -1070.000,1.00000,  2000,  2140.000, 0.00000E+0, 2.00000E-1, 0.00000E+0, 0.00000E+0,1.00000,1,  100.0,  2033.000,     0.000,   1,1.0000
  2130,'E ',   573.000,    80.020,   254.000,  -254.000,1.03500,  2100,   831.000, 0.00000E+0, 2.00000E-1, 0.00000E+0, 0.00000E+0,1.00000,1,  100.0,   789.450,     0.000,   1,1.0000
  2130,'G ',   404.000,    56.419,   200.000,  -200.000,1.03500,  2100,   586.000, 0.00000E+0, 2.00000E-1, 0.00000E+0, 0.00000E+0,1.00000,1,  100.0,   556.700,     0.000,   1,1.0000
  2130,'H ',   273.000,    38.124,   250.000,  -250.000,1.03500,  2100,   396.000, 0.00000E+0, 2.00000E-1, 0.00000E+0, 0.00000E+0,1.00000,1,  100.0,   376.200,     0.000,   1,1.0000
  2130,'S ',    79.000,    11.032,    86.000,   -86.000,1.03500,  2100,   115.000, 0.00000E+0, 2.00000E-1, 0.00000E+0, 0.00000E+0,1.00000,1,  100.0,   109.250,     0.000,   1,1.0000,   0,   1.0,   0,   1.0,   0,   1.0,1, 1.0000
  2202,'DP',    61.000,     0.000,     0.000,     0.000,1.00000,     0,   305.000, 0.00000E+0, 2.00000E-1, 0.00000E+0, 0.00000E+0,1.00000,1,  100.0,   289.750,     0.000,   1,1.0000,   0,   1.0,   0,   1.0,   0,   1.0,3, 1.0000
  2203,'DP',    67.000,     0.000,     0.000,     0.000,1.00000,     0,   337.000, 0.00000E+0, 2.00000E-1, 0.00000E+0, 0.00000E+0,1.00000,1,  100.0,   320.150,     0.000,   1,1.0000,   0,   1.0,   0,   1.0,   0,   1.0,3, 1.0000
  2233,'DG',   285.000,   131.192,   304.000,  -304.000,1.00500,  2203,  1035.000, 0.00000E+0, 2.00000E-1, 0.00000E+0, 0.00000E+0,1.00000,1,  100.0,   983.250,     0.000,   1,1.0000
  2233,'EG',   506.000,   232.923,   611.000,  -611.000,1.00500,  2203,  1837.000, 0.00000E+0, 2.00000E-1, 0.00000E+0, 0.00000E+0,1.00000,1,  100.0,  1745.150,     0.000,   1,1.0000
  2233,'S ',     0.000,     0.000,     0.000,     0.000,1.00500,  2203,     1.000, 0.00000E+0, 2.00000E-1, 0.00000E+0, 0.00000E+0,1.00000,0,  100.0,     0.100,     0.000,   1,1.0000,   0,   1.0,   0,   1.0,   0,   1.0,1, 1.0000
  2233,'TG',   202.000,    92.985,   206.000,  -206.000,1.00500,  2203,   733.000, 0.00000E+0, 2.00000E-1, 0.00000E+0, 0.00000E+0,1.00000,1,  100.0,   696.350,     0.000,   1,1.0000
  2332,'S ',   878.000,   120.650,   590.000,  -590.000,1.03500,  2302,  1333.000, 0.00000E+0, 2.00000E-1, 0.00000E+0, 0.00000E+0,1.00000,1,  100.0,  1266.350,     0.000,   1,1.0000,   0,   1.0,   0,   1.0,   0,   1.0,1, 1.0000
  2400,'DP',    33.000,     0.000,     0.000,     0.000,1.00000,     0,   166.000, 0.00000E+0, 2.00000E-1, 0.00000E+0, 0.00000E+0,1.00000,1,  100.0,   157.700,     0.000,   1,1.0000,   0,   1.0,   0,   1.0,   0,   1.0,3, 1.0000
  2401,'DP',    35.000,     0.000,     0.000,     0.000,1.00000,     0,   174.000, 0.00000E+0, 2.00000E-1, 0.00000E+0, 0.00000E+0,1.00000,1,  100.0,   165.300,     0.000,   1,1.0000,   0,   1.0,   0,   1.0,   0,   1.0,3, 1.0000
  2402,'DP',    43.000,     0.000,     0.000,     0.000,1.00000,     0,   213.000, 0.00000E+0, 2.00000E-1, 0.00000E+0, 0.00000E+0,1.00000,1,  100.0,   202.350,     0.000,   1,1.0000,   0,   1.0,   0,   1.0,   0,   1.0,3, 1.0000
  2403,'DP',    41.000,     0.000,     0.000,     0.000,1.00000,     0,   207.000, 0.00000E+0, 2.00000E-1, 0.00000E+0, 0.00000E+0,1.00000,1,  100.0,   196.650,     0.000,   1,1.0000,   0,   1.0,   0,   1.0,   0,   1.0,3, 1.0000
  2405,'DP',    33.000,     0.000,     0.000,     0.000,1.00000,     0,   163.000, 0.00000E+0, 2.00000E-1, 0.00000E+0, 0.00000E+0,1.00000,1,  100.0,   154.850,     0.000,   1,1.0000,   0,   1.0,   0,   1.0,   0,   1.0,3, 1.0000
  2406,'DP',    29.000,     0.000,     0.000,     0.000,1.00000,     0,   145.000, 0.00000E+0, 2.00000E-1, 0.00000E+0, 0.00000E+0,1.00000,1,  100.0,   137.750,     0.000,   1,1.0000,   0,   1.0,   0,   1.0,   0,   1.0,3, 1.0000
  2407,'DP',    68.000,     0.000,     0.000,     0.000,1.00000,     0,   342.000, 0.00000E+0, 2.00000E-1, 0.00000E+0, 0.00000E+0,1.00000,1,  100.0,   324.900,     0.000,   1,1.0000,   0,   1.0,   0,   1.0,   0,   1.0,3, 1.0000
  2408,'DP',    69.000,     0.000,     0.000,     0.000,1.00000,     0,   344.000, 0.00000E+0, 2.00000E-1, 0.00000E+0, 0.00000E+0,1.00000,1,  100.0,   326.800,     0.000,   1,1.0000,   0,   1.0,   0,   1.0,   0,   1.0,3, 1.0000
  2409,'DP',    63.000,     0.000,     0.000,     0.000,1.00000,     0,   316.000, 0.00000E+0, 2.00000E-1, 0.00000E+0, 0.00000E+0,1.00000,1,  100.0,   300.200,     0.000,   1,1.0000,   0,   1.0,   0,   1.0,   0,   1.0,3, 1.0000
  2410,'DP',    62.000,     0.000,     0.000,     0.000,1.00000,     0,   311.000, 0.00000E+0, 2.00000E-1, 0.00000E+0, 0.00000E+0,1.00000,1,  100.0,   295.450,     0.000,   1,1.0000,   0,   1.0,   0,   1.0,   0,   1.0,3, 1.0000
  2411,'DP',    43.000,     0.000,     0.000,     0.000,1.00000,     0,   214.000, 0.00000E+0, 2.00000E-1, 0.00000E+0, 0.00000E+0,1.00000,1,  100.0,   203.300,     0.000,   1,1.0000,   0,   1.0,   0,   1.0,   0,   1.0,3, 1.0000
  2431,'S ',   500.000,   206.054,   800.000,  -800.000,1.05000,     0,  1666.000, 0.00000E+0, 2.00000E-1, 0.00000E+0, 0.00000E+0,1.00000,1,  100.0,  1582.700,     0.000,   1,1.0000,   0,   1.0,   0,   1.0,   0,   1.0,1, 1.0000
  2434,'S ',   500.000,  -325.208,   500.000,  -500.000,1.02000,     0,  1489.000, 0.00000E+0, 2.00000E-1, 0.00000E+0, 0.00000E+0,1.00000,1,  100.0,  1414.550,     0.000,   1,1.0000,   0,   1.0,   0,   1.0,   0,   1.0,1, 1.0000
  2438,'EG',   503.000,    23.912,   728.000,  -728.000,1.00900,  2408,  2292.000, 0.00000E+0, 2.00000E-1, 0.00000E+0, 0.00000E+0,1.00000,1,  100.0,  2177.400,     0.000,   1,1.0000
  2438,'ND',     0.000,     0.000,     0.500,     0.000,1.00900,  2408,   100.000, 0.00000E+0, 2.00000E-1, 0.00000E+0, 0.00000E+0,1.00000,1,  100.0,     0.000, -1006.000,   1,1.0000
  2438,'RG',  1196.000,    56.858,  1902.000, -1902.000,1.00900,  2408,  5451.000, 0.00000E+0, 2.00000E-1, 0.00000E+0, 0.00000E+0,1.00000,1,  100.0,  5178.450,     0.000,   1,1.0000
  2438,'S ',   251.000,    11.932,   800.000,  -800.000,1.00900,  2408,  1146.000, 0.00000E+0, 2.00000E-1, 0.00000E+0, 0.00000E+0,1.00000,1,  100.0,  1088.700,     0.000,   1,1.0000,   0,   1.0,   0,   1.0,   0,   1.0,1, 1.0000
  2438,'SG',   901.000,    42.833,  2301.000, -2301.000,1.00900,  2408,  4110.000, 0.00000E+0, 2.00000E-1, 0.00000E+0, 0.00000E+0,1.00000,1,  100.0,  3904.500,     0.000,   1,1.0000
  2438,'SH',   233.000,    11.077,   659.000,  -659.000,1.00900,  2408,  1460.000, 0.00000E+0, 2.00000E-1, 0.00000E+0, 0.00000E+0,1.00000,1,  100.0,  1387.000,     0.000,   1,1.0000
  2438,'SW',   704.000,    33.468,   561.000,  -561.000,1.00900,  2408,  3210.000, 0.00000E+0, 2.00000E-1, 0.00000E+0, 0.00000E+0,1.00000,1,  100.0,  3049.500,     0.000,   1,1.0000,   0,   1.0,   0,   1.0,   0,   1.0,1, 1.0000
  2438,'WG',  1276.000,    60.661,  1910.000, -1910.000,1.00900,  2408,  5817.000, 0.00000E+0, 2.00000E-1, 0.00000E+0, 0.00000E+0,1.00000,1,  100.0,  5526.150,     0.000,   1,1.0000
  2439,'S ',  1000.000,  -238.906,   800.000,  -800.000,1.02000,  2409,  1666.000, 0.00000E+0, 2.00000E-1, 0.00000E+0, 0.00000E+0,1.00000,1,  100.0,  1582.700,     0.000,   1,1.0000,   0,   1.0,   0,   1.0,   0,   1.0,1, 1.0000
  2502,'DP',    93.000,     0.000,     0.000,     0.000,1.00000,     0,   467.000, 0.00000E+0, 2.00000E-1, 0.00000E+0, 0.00000E+0,1.00000,1,  100.0,   443.650,     0.000,   1,1.0000,   0,   1.0,   0,   1.0,   0,   1.0,3, 1.0000
  2503,'DP',    73.000,     0.000,     0.000,     0.000,1.00000,     0,   364.000, 0.00000E+0, 2.00000E-1, 0.00000E+0, 0.00000E+0,1.00000,1,  100.0,   345.800,     0.000,   1,1.0000,   0,   1.0,   0,   1.0,   0,   1.0,3, 1.0000
  2533,'S ',  1899.000,   183.060,  1100.000, -1100.000,1.00900,  2503,  1999.000, 0.00000E+0, 2.00000E-1, 0.00000E+0, 0.00000E+0,1.00000,1,  100.0,  1899.050,     0.000,   1,1.0000,   0,   1.0,   0,   1.0,   0,   1.0,1, 1.0000
  2613,'DP',    13.000,     0.000,     0.000,     0.000,1.00000,     0,    63.000, 0.00000E+0, 2.00000E-1, 0.00000E+0, 0.00000E+0,1.00000,1,  100.0,    59.850,     0.000,   1,1.0000,   0,   1.0,   0,   1.0,   0,   1.0,3, 1.0000
  2615,'DP',    32.000,     0.000,     0.000,     0.000,1.00000,     0,   158.000, 0.00000E+0, 2.00000E-1, 0.00000E+0, 0.00000E+0,1.00000,1,  100.0,   150.100,     0.000,   1,1.0000,   0,   1.0,   0,   1.0,   0,   1.0,3, 1.0000
  2618,'DP',    35.000,     0.000,     0.000,     0.000,1.00000,     0,   174.000, 0.00000E+0, 2.00000E-1, 0.00000E+0, 0.00000E+0,1.00000,1,  100.0,   165.300,     0.000,   1,1.0000,   0,   1.0,   0,   1.0,   0,   1.0,3, 1.0000
  2630,'G ',  2282.000,   189.668,  1346.000, -1346.000,1.00400,  2610,  3947.000, 0.00000E+0, 2.00000E-1, 0.00000E+0, 0.00000E+0,1.00000,1,  100.0,  3749.650,     0.000,   1,1.0000
  2630,'S ',     0.000,     0.000,     0.000,     0.000,1.00400,  2610,     1.000, 0.00000E+0, 2.00000E-1, 0.00000E+0, 0.00000E+0,1.00000,0,  100.0,     0.100,     0.000,   1,1.0000,   0,   1.0,   0,   1.0,   0,   1.0,1, 1.0000
  2631,'S ',   232.000,    60.571,   350.000,  -350.000,1.01500,  2612,   520.000, 0.00000E+0, 2.00000E-1, 0.00000E+0, 0.00000E+0,1.00000,1,  100.0,   494.000,     0.000,   1,1.0000,   0,   1.0,   0,   1.0,   0,   1.0,1, 1.0000
  2634,'C ',  1537.000,   385.027,   950.000,  -950.000,1.06000,  2604,  1618.000, 0.00000E+0, 2.00000E-1, 0.00000E+0, 0.00000E+0,1.00000,1,  100.0,  1537.100,     0.000,   1,1.0000
  2634,'S ',     0.000,     0.000,     0.000,     0.000,1.06000,  2604,     1.000, 0.00000E+0, 2.00000E-1, 0.00000E+0, 0.00000E+0,1.00000,0,  100.0,     0.100,     0.000,   1,1.0000,   0,   1.0,   0,   1.0,   0,   1.0,1, 1.0000
  2637,'H ',    80.000,    60.571,   110.000,  -110.000,1.01500,  2612,    87.000, 0.00000E+0, 2.00000E-1, 0.00000E+0, 0.00000E+0,1.00000,1,  100.0,    82.650,     0.000,   1,1.0000
  2638,'H ',     0.000,    60.571,   100.000,  -100.000,1.01500,  2612,   407.000, 0.00000E+0, 2.00000E-1, 0.00000E+0, 0.00000E+0,1.00000,1,  100.0,   386.650,     0.000,   1,1.0000
  3101,'DP',    13.000,     0.000,     0.000,     0.000,1.00000,     0,    67.000, 0.00000E+0, 2.00000E-1, 0.00000E+0, 0.00000E+0,1.00000,1,  100.0,    63.650,     0.000,   1,1.0000,   0,   1.0,   0,   1.0,   0,   1.0,3, 1.0000
  3103,'DP',    17.000,     0.000,     0.000,     0.000,1.00000,     0,    83.000, 0.00000E+0, 2.00000E-1, 0.00000E+0, 0.00000E+0,1.00000,1,  100.0,    78.850,     0.000,   1,1.0000,   0,   1.0,   0,   1.0,   0,   1.0,3, 1.0000
  3104,'DP',    12.000,     0.000,     0.000,     0.000,1.00000,     0,    61.000, 0.00000E+0, 2.00000E-1, 0.00000E+0, 0.00000E+0,1.00000,1,  100.0,    57.950,     0.000,   1,1.0000,   0,   1.0,   0,   1.0,   0,   1.0,3, 1.0000
  3133,'NG',    31.000,    42.000,    42.000,   -42.000,1.00000,  3103,    62.000, 0.00000E+0, 2.00000E-1, 0.00000E+0, 0.00000E+0,1.00000,1,  100.0,    58.900,     0.000,   1,1.0000
  3133,'S ',     0.000,     0.000,     0.000,     0.000,1.00000,  3103,     1.000, 0.00000E+0, 2.00000E-1, 0.00000E+0, 0.00000E+0,1.00000,0,  100.0,     0.100,     0.000,   1,1.0000,   0,   1.0,   0,   1.0,   0,   1.0,1, 1.0000
  3133,'SC',     0.000,   185.867,   500.000,  -500.000,1.00000,  3103,   500.000, 0.00000E+0, 2.00000E-1, 0.00000E+0, 0.00000E+0,1.00000,1,  100.0,     0.100,     0.000,   1,1.0000
  3135,'MG',   206.000,    82.442,   239.000,  -239.000,1.00000,  3105,   541.000, 0.00000E+0, 2.00000E-1, 0.00000E+0, 0.00000E+0,1.00000,1,  100.0,   513.950,     0.000,   1,1.0000
  3135,'NG',    14.000,     5.603,   100.000,  -100.000,1.00000,  3105,    38.000, 0.00000E+0, 2.00000E-1, 0.00000E+0, 0.00000E+0,1.00000,1,  100.0,    36.100,     0.000,   1,1.0000
  3135,'S ',     0.000,     0.000,     0.000,     0.000,1.00000,  3105,     1.000, 0.00000E+0, 2.00000E-1, 0.00000E+0, 0.00000E+0,1.00000,0,  100.0,     0.100,     0.000,   1,1.0000,   0,   1.0,   0,   1.0,   0,   1.0,1, 1.0000
  3201,'DP',    18.000,     0.000,     0.000,     0.000,1.00000,     0,    91.000, 0.00000E+0, 2.00000E-1, 0.00000E+0, 0.00000E+0,1.00000,1,  100.0,    86.450,     0.000,   1,1.0000,   0,   1.0,   0,   1.0,   0,   1.0,3, 1.0000
  3202,'DP',    23.000,     0.000,     0.000,     0.000,1.00000,     0,   116.000, 0.00000E+0, 2.00000E-1, 0.00000E+0, 0.00000E+0,1.00000,1,  100.0,   110.200,     0.000,   1,1.0000,   0,   1.0,   0,   1.0,   0,   1.0,3, 1.0000
  3203,'DP',    26.000,     0.000,     0.000,     0.000,1.00000,     0,   130.000, 0.00000E+0, 2.00000E-1, 0.00000E+0, 0.00000E+0,1.00000,1,  100.0,   123.500,     0.000,   1,1.0000,   0,   1.0,   0,   1.0,   0,   1.0,3, 1.0000
  3204,'DP',    26.000,     0.000,     0.000,     0.000,1.00000,     0,   132.000, 0.00000E+0, 2.00000E-1, 0.00000E+0, 0.00000E+0,1.00000,1,  100.0,   125.400,     0.000,   1,1.0000,   0,   1.0,   0,   1.0,   0,   1.0,3, 1.0000
  3205,'DP',    22.000,     0.000,     0.000,     0.000,1.00000,     0,   108.000, 0.00000E+0, 2.00000E-1, 0.00000E+0, 0.00000E+0,1.00000,1,  100.0,   102.600,     0.000,   1,1.0000,   0,   1.0,   0,   1.0,   0,   1.0,3, 1.0000
  3234,'DG',   104.000,    13.560,   101.000,  -101.000,1.01000,  3204,   177.000, 0.00000E+0, 2.00000E-1, 0.00000E+0, 0.00000E+0,1.00000,1,  100.0,   168.150,     0.000,   1,1.0000
  3234,'MG',  2261.000,   294.808,  1244.000, -1244.000,1.01000,  3204,  3853.000, 0.00000E+0, 2.00000E-1, 0.00000E+0, 0.00000E+0,1.00000,1,  100.0,  3660.350,     0.000,   1,1.0000
  3234,'NG',   608.000,    79.276,   382.000,  -382.000,1.01000,  3204,  1037.000, 0.00000E+0, 2.00000E-1, 0.00000E+0, 0.00000E+0,1.00000,1,  100.0,   985.150,     0.000,   1,1.0000
  3234,'NW',  1021.000,   133.127,   150.000,  -150.000,1.01000,  3204,  1740.000, 0.00000E+0, 2.00000E-1, 0.00000E+0, 0.00000E+0,1.00000,1,  100.0,  1653.000,     0.000,   1,1.0000,   0,   1.0,   0,   1.0,   0,   1.0,1, 1.0000
  3234,'S ',     0.000,     0.000,     0.000,     0.000,1.01000,  3204,     1.000, 0.00000E+0, 2.00000E-1, 0.00000E+0, 0.00000E+0,1.00000,0,  100.0,     0.100,     0.000,   1,1.0000,   0,   1.0,   0,   1.0,   0,   1.0,1, 1.0000
  3302,'DP',    14.000,     0.000,     0.000,     0.000,1.00000,     0,    68.000, 0.00000E+0, 2.00000E-1, 0.00000E+0, 0.00000E+0,1.00000,1,  100.0,    64.600,     0.000,   1,1.0000,   0,   1.0,   0,   1.0,   0,   1.0,3, 1.0000
  3303,'DP',    25.000,     0.000,     0.000,     0.000,1.00000,     0,   123.000, 0.00000E+0, 2.00000E-1, 0.00000E+0, 0.00000E+0,1.00000,1,  100.0,   116.850,     0.000,   1,1.0000,   0,   1.0,   0,   1.0,   0,   1.0,3, 1.0000
  3304,'DP',    21.000,     0.000,     0.000,     0.000,1.00000,     0,   105.000, 0.00000E+0, 2.00000E-1, 0.00000E+0, 0.00000E+0,1.00000,1,  100.0,    99.750,     0.000,   1,1.0000,   0,   1.0,   0,   1.0,   0,   1.0,3, 1.0000
  3305,'DP',    17.000,     0.000,     0.000,     0.000,1.00000,     0,    85.000, 0.00000E+0, 2.00000E-1, 0.00000E+0, 0.00000E+0,1.00000,1,  100.0,    80.750,     0.000,   1,1.0000,   0,   1.0,   0,   1.0,   0,   1.0,3, 1.0000
  3333,'CG',   620.000,   398.000,   398.000,  -398.000,1.00000,  3303,  1012.000, 0.00000E+0, 2.00000E-1, 0.00000E+0, 0.00000E+0,1.00000,1,  100.0,   961.400,     0.000,   1,1.0000
  3333,'NG',   191.000,   149.580,   202.000,  -202.000,1.00000,  3303,   312.000, 0.00000E+0, 2.00000E-1, 0.00000E+0, 0.00000E+0,1.00000,1,  100.0,   296.400,     0.000,   1,1.0000
  3333,'S ',     0.000,     0.000,     0.000,     0.000,1.00000,  3303,     1.000, 0.00000E+0, 2.00000E-1, 0.00000E+0, 0.00000E+0,1.00000,0,  100.0,     0.100,     0.000,   1,1.0000,   0,   1.0,   0,   1.0,   0,   1.0,1, 1.0000
  3401,'DP',    22.000,     0.000,     0.000,     0.000,1.00000,     0,   110.000, 0.00000E+0, 2.00000E-1, 0.00000E+0, 0.00000E+0,1.00000,1,  100.0,   104.500,     0.000,   1,1.0000,   0,   1.0,   0,   1.0,   0,   1.0,3, 1.0000
  3403,'DP',    20.000,     0.000,     0.000,     0.000,1.00000,     0,   102.000, 0.00000E+0, 2.00000E-1, 0.00000E+0, 0.00000E+0,1.00000,1,  100.0,    96.900,     0.000,   1,1.0000,   0,   1.0,   0,   1.0,   0,   1.0,3, 1.0000
  3404,'DP',    17.000,     0.000,     0.000,     0.000,1.00000,     0,    86.000, 0.00000E+0, 2.00000E-1, 0.00000E+0, 0.00000E+0,1.00000,1,  100.0,    81.700,     0.000,   1,1.0000,   0,   1.0,   0,   1.0,   0,   1.0,3, 1.0000
  3405,'DP',    18.000,     0.000,     0.000,     0.000,1.00000,     0,    88.000, 0.00000E+0, 2.00000E-1, 0.00000E+0, 0.00000E+0,1.00000,1,  100.0,    83.600,     0.000,   1,1.0000,   0,   1.0,   0,   1.0,   0,   1.0,3, 1.0000
  3432,'NP',     0.000,   150.079,  1568.000, -1568.000,1.00000,  3402,  3746.000, 0.00000E+0, 2.00000E-1, 0.00000E+0, 0.00000E+0,1.00000,1,  100.0,  3558.700, -2841.000,   1,1.0000
  3433,'NG',   481.000,    24.605,   231.000,  -231.000,1.00000,  3403,   921.000, 0.00000E+0, 2.00000E-1, 0.00000E+0, 0.00000E+0,1.00000,1,  100.0,   874.950,     0.000,   1,1.0000
  3433,'S ',   745.000,    38.110,   939.000,  -939.000,1.00000,  3403,  1426.000, 0.00000E+0, 2.00000E-1, 0.00000E+0, 0.00000E+0,1.00000,1,  100.0,  1354.700,     0.000,   1,1.0000,   0,   1.0,   0,   1.0,   0,   1.0,1, 1.0000
  3501,'DP',    25.000,     0.000,     0.000,     0.000,1.00000,     0,   123.000, 0.00000E+0, 2.00000E-1, 0.00000E+0, 0.00000E+0,1.00000,1,  100.0,   116.850,     0.000,   1,1.0000,   0,   1.0,   0,   1.0,   0,   1.0,3, 1.0000
  3531,'CE',   783.000,    90.118,  1004.000, -1004.000,1.00000,  3501,  1424.000, 0.00000E+0, 2.00000E-1, 0.00000E+0, 0.00000E+0,1.00000,1,  100.0,  1352.800,     0.000,   1,1.0000
  3531,'NE',   293.000,    33.722,   253.000,  -253.000,1.00000,  3501,   533.000, 0.00000E+0, 2.00000E-1, 0.00000E+0, 0.00000E+0,1.00000,1,  100.0,   506.350,     0.000,   1,1.0000
  3531,'NH',    13.000,     1.496,    13.000,   -13.000,1.00000,  3501,    24.000, 0.00000E+0, 2.00000E-1, 0.00000E+0, 0.00000E+0,1.00000,1,  100.0,    22.800,     0.000,   1,1.0000
  3631,'NB',    30.000,    -0.749,    20.000,   -20.000,1.01500,  3601,    96.000, 0.00000E+0, 2.00000E-1, 0.00000E+0, 0.00000E+0,1.00000,1,  100.0,    91.200,     0.000,   1,1.0000
  3631,'NG',    67.000,    -1.673,    74.000,   -74.000,1.01500,  3601,   210.000, 0.00000E+0, 2.00000E-1, 0.00000E+0, 0.00000E+0,1.00000,1,  100.0,   199.500,     0.000,   1,1.0000
  3631,'S ',     0.000,     0.000,     0.000,     0.000,1.01500,  3601,     1.000, 0.00000E+0, 2.00000E-1, 0.00000E+0, 0.00000E+0,1.00000,0,  100.0,     0.100,     0.000,   1,1.0000,   0,   1.0,   0,   1.0,   0,   1.0,1, 1.0000
  3731,'NH',   222.000,   184.247,   200.000,  -200.000,1.00000,  3701,   243.000, 0.00000E+0, 2.00000E-1, 0.00000E+0, 0.00000E+0,1.00000,1,  100.0,   230.850,     0.000,   1,1.0000
  3805,'DP',    20.000,     0.000,     0.000,     0.000,1.00000,     0,    98.000, 0.00000E+0, 2.00000E-1, 0.00000E+0, 0.00000E+0,1.00000,1,  100.0,    93.100,     0.000,   1,1.0000,   0,   1.0,   0,   1.0,   0,   1.0,3, 1.0000
  3831,'NN',  2108.000,     8.909,  1175.000, -1175.000,1.04900,  3801,  2323.000, 0.00000E+0, 2.00000E-1, 0.00000E+0, 0.00000E+0,1.00000,1,  100.0,  2206.850,     0.000,   1,1.0000
  3835,'ND',     0.000,     0.000,     0.500,     0.000,1.03500,  3805,   100.000, 0.00000E+0, 2.00000E-1, 0.00000E+0, 0.00000E+0,1.00000,1,  100.0,     0.000,  -510.000,   1,1.0000
  3835,'NG',   229.000,    56.541,   662.000,  -662.000,1.03500,  3805,  2025.000, 0.00000E+0, 2.00000E-1, 0.00000E+0, 0.00000E+0,1.00000,1,  100.0,  1923.750,     0.000,   1,1.0000
  3835,'S ',   150.000,    37.036,   500.000,  -500.000,1.03500,  3805,  1333.000, 0.00000E+0, 2.00000E-1, 0.00000E+0, 0.00000E+0,1.00000,1,  100.0,  1266.350,     0.000,   1,1.0000,   0,   1.0,   0,   1.0,   0,   1.0,1, 1.0000
  3836,'DG',   679.000,     8.376,   476.000,  -476.000,1.01900,  3806,  1497.000, 0.00000E+0, 2.00000E-1, 0.00000E+0, 0.00000E+0,1.00000,1,  100.0,  1422.150,     0.000,   1,1.0000
  3836,'S ',     0.000,     0.000,     0.000,     0.000,1.01900,  3806,     1.000, 0.00000E+0, 2.00000E-1, 0.00000E+0, 0.00000E+0,1.00000,0,  100.0,     0.100,     0.000,   1,1.0000,   0,   1.0,   0,   1.0,   0,   1.0,1, 1.0000
...